Version 4
SHEET 1 3932 1400
WIRE 1296 -240 1232 -240
WIRE 1408 -240 1360 -240
WIRE 1232 -144 1232 -240
WIRE 1280 -144 1232 -144
WIRE 1408 -144 1408 -240
WIRE 1408 -144 1360 -144
WIRE 528 -48 496 -48
WIRE 896 -48 848 -48
WIRE 1008 -48 960 -48
WIRE 1056 -48 1008 -48
WIRE 1232 -48 1232 -144
WIRE 1232 -48 1136 -48
WIRE 1280 -48 1232 -48
WIRE 1408 -32 1408 -144
WIRE 1408 -32 1344 -32
WIRE 1488 -32 1408 -32
WIRE 1952 -32 1488 -32
WIRE 2064 -32 2032 -32
WIRE 2256 -32 2064 -32
WIRE 1280 -16 1232 -16
WIRE 2064 -16 2064 -32
WIRE 496 0 496 -48
WIRE 1824 48 1760 48
WIRE 1936 48 1888 48
WIRE 2064 64 2064 48
WIRE 1008 112 1008 -48
WIRE 1024 112 1008 112
WIRE 1760 128 1760 48
WIRE 1808 128 1760 128
WIRE 1936 128 1936 48
WIRE 1936 128 1888 128
WIRE 1232 144 1232 -16
WIRE 1232 144 1216 144
WIRE 1456 224 1424 224
WIRE 1536 224 1520 224
WIRE 1584 224 1536 224
WIRE 1760 224 1760 128
WIRE 1760 224 1664 224
WIRE 1808 224 1760 224
WIRE 1024 240 976 240
WIRE 1936 240 1936 128
WIRE 1936 240 1872 240
WIRE 2016 240 1936 240
WIRE 2224 240 2016 240
WIRE 2336 240 2304 240
WIRE 2512 240 2336 240
WIRE 816 256 720 256
WIRE 1808 256 1760 256
WIRE 2336 256 2336 240
WIRE 976 272 976 240
WIRE 976 272 880 272
WIRE 720 288 720 256
WIRE 2336 336 2336 320
WIRE 1552 384 1488 384
WIRE 1760 416 1760 256
WIRE 1760 416 1744 416
WIRE 1536 448 1536 224
WIRE 1552 448 1536 448
WIRE 1552 512 1536 512
WIRE 1344 528 1216 528
WIRE 1536 544 1536 512
WIRE 1536 544 1408 544
FLAG 144 224 Vcc
FLAG 144 304 0
FLAG 288 304 0
FLAG 288 224 Vbias
FLAG 496 80 0
FLAG 608 -48 Signal
FLAG 1840 272 0
FLAG 1840 208 Vcc
FLAG 848 -48 Signal
FLAG 1488 -32 Sig_I
FLAG 2016 240 Sig_Q
FLAG 1216 608 0
FLAG 2336 336 0
FLAG 720 368 0
FLAG 2512 240 Sig_Q_f
FLAG 144 -16 0
FLAG 144 -96 Vs
FLAG 1424 224 Signal
FLAG 2064 64 0
FLAG 2256 -32 Sig_I_f
FLAG 1344 560 0
FLAG 1648 320 Vcc
FLAG 1744 512 Vcc
FLAG 1712 624 0
FLAG 1584 624 0
FLAG 1312 0 0
FLAG 1312 -64 Vcc
FLAG 816 288 0
FLAG 1120 48 Vcc
FLAG 1216 240 Vcc
FLAG 1184 352 0
FLAG 1056 352 0
FLAG 720 256 Ref
FLAG 1216 528 Ref90
FLAG 1024 176 Vbias
FLAG 1488 384 Vbias
SYMBOL voltage 144 208 R0
WINDOW 123 0 0 Left 0
WINDOW 39 24 124 Left 2
SYMATTR SpiceLine Rser=0.2 Cpar=100u
SYMATTR InstName V1
SYMATTR Value {Vcc}
SYMBOL voltage 288 208 R0
WINDOW 123 0 0 Left 0
WINDOW 39 24 124 Left 2
SYMATTR SpiceLine Rser=0.2 Cpar=100u
SYMATTR InstName V2
SYMATTR Value {Vbias}
SYMBOL voltage 496 -16 R0
WINDOW 123 0 0 Left 0
WINDOW 39 24 124 Left 2
SYMATTR SpiceLine Rser=0.2 Cpar=1p
SYMATTR InstName V3
SYMATTR Value SINE({Vbias} 1 1Meg 0 0 {phase})
SYMBOL OpAmps\\UniversalOpamp2 1840 240 R0
SYMATTR InstName U9
SYMATTR Value2 Avol=100Meg GBW=100Meg Slew=100Meg
SYMATTR SpiceLine Ilimit=25 Rail=0 Vos=0
SYMBOL res 1680 208 R90
WINDOW 0 0 56 VBottom 2
WINDOW 3 32 56 VTop 2
SYMATTR InstName R28
SYMATTR Value 100
SYMBOL cap 1520 208 R90
WINDOW 0 0 32 VBottom 2
WINDOW 3 32 32 VTop 2
SYMATTR InstName C6
SYMATTR Value 1µ
SYMATTR SpiceLine Rpar=1Meg
SYMBOL res 1152 -64 R90
WINDOW 0 0 56 VBottom 2
WINDOW 3 32 56 VTop 2
SYMATTR InstName R30
SYMATTR Value 100
SYMBOL cap 960 -64 R90
WINDOW 0 0 32 VBottom 2
WINDOW 3 32 32 VTop 2
SYMATTR InstName C14
SYMATTR Value 1µ
SYMATTR SpiceLine Rpar=1Meg
SYMBOL res 1792 112 M90
WINDOW 0 0 56 VBottom 2
WINDOW 3 32 56 VTop 2
SYMATTR InstName R32
SYMATTR Value 200
SYMBOL voltage 1216 512 R0
WINDOW 3 -327 -47 Left 2
WINDOW 123 0 0 Left 0
WINDOW 39 24 44 Left 2
SYMATTR Value SINE({Vbias} 1 1Meg 0 0 90)
SYMATTR SpiceLine Rser=0.2 Cpar=10p
SYMATTR InstName V5
SYMBOL cap 2320 256 R0
SYMATTR InstName C18
SYMATTR Value 470n
SYMBOL voltage 720 272 R0
WINDOW 3 -224 166 Left 2
WINDOW 123 0 0 Left 0
WINDOW 39 24 44 Left 2
SYMATTR Value SINE({Vbias} 1 1Meg 0 0 0)
SYMATTR SpiceLine Rser=0.2 Cpar=10p
SYMATTR InstName V4
SYMBOL voltage 144 -112 R0
WINDOW 3 24 44 Left 2
WINDOW 123 0 0 Left 0
WINDOW 39 24 72 Left 2
SYMATTR Value 20
SYMATTR SpiceLine Rser=1m Cpar=100m
SYMATTR InstName V6
SYMBOL res 624 -64 R90
WINDOW 0 0 56 VBottom 2
WINDOW 3 32 56 VTop 2
SYMATTR InstName R1
SYMATTR Value 1m
SYMBOL cap 2048 -16 R0
SYMATTR InstName C1
SYMATTR Value 470n
SYMBOL Digital\\schmitt 1344 464 R0
WINDOW 3 -318 205 Left 2
SYMATTR Value Vhigh=3.3 Vt=1.65 Vh=.2 Trise=2.5n Tfall=2.5n
SYMATTR InstName A1
SYMBOL Switches\\ADG1519 1648 464 R0
SYMATTR InstName U4
SYMBOL OpAmps\\UniversalOpamp2 1312 -32 R0
SYMATTR InstName U2
SYMATTR Value2 Avol=100Meg GBW=100Meg Slew=100Meg
SYMATTR SpiceLine Ilimit=25 Rail=0 Vos=0
SYMBOL res 1264 -160 M90
WINDOW 0 0 56 VBottom 2
WINDOW 3 32 56 VTop 2
SYMATTR InstName R4
SYMATTR Value 200
SYMBOL Digital\\schmitt 816 192 R0
WINDOW 3 -318 205 Left 2
SYMATTR Value Vhigh=3.3 Vt=1.65 Vh=.2 Trise=2.5n Tfall=2.5n
SYMATTR InstName A2
SYMBOL Switches\\ADG1519 1120 192 R0
SYMATTR InstName U3
SYMBOL res 1936 -16 R270
WINDOW 0 32 56 VTop 2
WINDOW 3 0 56 VBottom 2
SYMATTR InstName R2
SYMATTR Value 100
SYMBOL res 2208 256 R270
WINDOW 0 32 56 VTop 2
WINDOW 3 0 56 VBottom 2
SYMATTR InstName R3
SYMATTR Value 100
SYMBOL cap 1888 32 R90
WINDOW 0 0 32 VBottom 2
WINDOW 3 32 32 VTop 2
SYMATTR InstName C2
SYMATTR Value 1n
SYMBOL cap 1360 -256 R90
WINDOW 0 0 32 VBottom 2
WINDOW 3 32 32 VTop 2
SYMATTR InstName C3
SYMATTR Value 1n
TEXT -16 104 Left 2 !.PARAM Vbias=Vcc/2
TEXT -16 128 Left 2 !.param Vcc=3.3
TEXT 128 376 Left 2 !.tran 0 {tsim} 0.5m {ts_max}
TEXT -16 56 Left 2 !.param ts_max=100
TEXT -16 80 Left 2 !.param tsim=1m
TEXT 896 -168 Left 2 ;Lock In Amp (IQ)
TEXT 136 440 Left 2 ;Signal Phase shift
TEXT -16 152 Left 2 !.step param phase 0 345 15
TEXT -16 176 Left 2 !.options cshunt = 1e-14
