Version 4
SHEET 1 3932 1400
WIRE 1280 -144 1232 -144
WIRE 1408 -144 1360 -144
WIRE 992 -112 864 -112
WIRE 528 -48 496 -48
WIRE 624 -48 608 -48
WIRE 864 -48 864 -112
WIRE 864 -48 848 -48
WIRE 896 -48 864 -48
WIRE 992 -48 992 -112
WIRE 992 -48 960 -48
WIRE 1008 -48 992 -48
WIRE 1056 -48 1008 -48
WIRE 1232 -48 1232 -144
WIRE 1232 -48 1136 -48
WIRE 1280 -48 1232 -48
WIRE 1408 -32 1408 -144
WIRE 1408 -32 1344 -32
WIRE 1488 -32 1408 -32
WIRE 1952 -32 1488 -32
WIRE 2064 -32 2032 -32
WIRE 2256 -32 2064 -32
WIRE 1280 -16 1232 -16
WIRE 2064 -16 2064 -32
WIRE 496 0 496 -48
WIRE 1008 48 1008 -48
WIRE 1072 48 1008 48
WIRE 1232 48 1232 -16
WIRE 1232 48 1136 48
WIRE 1232 64 1232 48
WIRE 1232 80 1232 64
WIRE 1184 128 1088 128
WIRE 1088 144 1088 128
FLAG 144 224 Vcc
FLAG 144 304 0
FLAG 288 304 0
FLAG 288 224 Vbias
FLAG 496 80 0
FLAG 848 -48 CLOCK
FLAG 1488 -32 PHASE_DELAY
FLAG 144 -16 0
FLAG 144 -96 Vs
FLAG 2256 -32 PHASE_DELAY_f
FLAG 1312 0 0
FLAG 1312 -64 Vcc
FLAG 2064 48 0
FLAG 1232 160 Vbias
FLAG 624 -48 CLOCK
FLAG 1088 224 0
SYMBOL voltage 144 208 R0
WINDOW 123 0 0 Left 0
WINDOW 39 24 124 Left 2
SYMATTR SpiceLine Rser=0.2 Cpar=100u
SYMATTR InstName V1
SYMATTR Value {Vcc}
SYMBOL voltage 288 208 R0
WINDOW 123 0 0 Left 0
WINDOW 39 24 124 Left 2
SYMATTR SpiceLine Rser=0.2 Cpar=100u
SYMATTR InstName V2
SYMATTR Value {Vbias}
SYMBOL voltage 496 -16 R0
WINDOW 123 24 152 Left 2
WINDOW 39 24 124 Left 2
SYMATTR Value2 AC 1
SYMATTR SpiceLine Rser=0.2 Cpar=1p
SYMATTR InstName V3
SYMATTR Value SINE({Vbias} 1 1Meg 0 0 0)
SYMBOL res 1152 -64 R90
WINDOW 0 0 56 VBottom 2
WINDOW 3 32 56 VTop 2
SYMATTR InstName R30
SYMATTR Value 100
SYMBOL cap 960 -64 R90
WINDOW 0 0 32 VBottom 2
WINDOW 3 32 32 VTop 2
SYMATTR InstName C14
SYMATTR Value 1µ
SYMATTR SpiceLine Rpar=1Meg
SYMBOL voltage 144 -112 R0
WINDOW 3 24 44 Left 2
WINDOW 123 0 0 Left 0
WINDOW 39 24 72 Left 2
SYMATTR Value 20
SYMATTR SpiceLine Rser=1m Cpar=100m
SYMATTR InstName V6
SYMBOL res 624 -64 R90
WINDOW 0 0 56 VBottom 2
WINDOW 3 32 56 VTop 2
SYMATTR InstName R1
SYMATTR Value 1m
SYMBOL cap 2048 -16 R0
SYMATTR InstName C1
SYMATTR Value 470n
SYMBOL OpAmps\\UniversalOpamp2 1312 -32 R0
SYMATTR InstName U2
SYMATTR Value2 Avol=100Meg GBW=100Meg Slew=100Meg
SYMATTR SpiceLine Ilimit=25 Rail=0 Vos=0
SYMBOL res 1264 -160 M90
WINDOW 0 0 56 VBottom 2
WINDOW 3 32 56 VTop 2
SYMATTR InstName R4
SYMATTR Value 100
SYMBOL res 1936 -16 R270
WINDOW 0 32 56 VTop 2
WINDOW 3 0 56 VBottom 2
SYMATTR InstName R2
SYMATTR Value 100
SYMBOL cap 1136 32 R90
WINDOW 0 0 32 VBottom 2
WINDOW 3 32 32 VTop 2
SYMATTR InstName C2
SYMATTR Value 100p
SYMBOL njf 1184 64 R0
SYMATTR InstName J1
SYMATTR Value 2N3819
SYMBOL voltage 1088 128 R0
WINDOW 123 0 0 Left 0
WINDOW 39 24 124 Left 2
SYMATTR InstName V4
SYMATTR Value {phase}
SYMATTR SpiceLine Rser=10m Cpar=10u
TEXT -16 104 Left 2 !.PARAM Vbias=Vcc/2
TEXT -16 128 Left 2 !.param Vcc=3.3
TEXT 128 376 Left 2 ;.tran 0 {tsim} 0.5m {ts_max}
TEXT -16 56 Left 2 !.param ts_max=100
TEXT -16 80 Left 2 !.param tsim=1m
TEXT -16 152 Left 2 !.step param phase -1 6 .1
TEXT -16 176 Left 2 !.options cshunt = 1e-14
TEXT -18 396 Left 2 !.ac dec 1024 1 5G
